
**** 07/01/15 14:25:04 ****** PSpice 16.5.0 (April 2011) ****** ID# 0 ********

 ** Profile: "SCHEMATIC1-test1"  [ C:\USERS\ZIM\DESKTOP\SMART CHARGER\Simulation\lm358 test-PSpiceFiles\SCHEMATIC1\test1.sim ] 


 ****     CIRCUIT DESCRIPTION


******************************************************************************




** Creating circuit file "test1.cir" 
** WARNING: THIS AUTOMATICALLY GENERATED FILE MAY BE OVERWRITTEN BY SUBSEQUENT SIMULATIONS

*Libraries: 
* Profile Libraries :
* Local Libraries :
* From [PSPICE NETLIST] section of C:\Cadence\SPB_16.5\tools\PSpice\PSpice.ini file:
.lib "nom.lib" 

*Analysis directives: 
.TRAN  0 1.3ms 0 1us 
.PROBE V(alias(*)) I(alias(*)) W(alias(*)) D(alias(*)) NOISE(alias(*)) 
.INC "..\SCHEMATIC1.net" 



**** INCLUDING SCHEMATIC1.net ****
* source LM358 TEST
X_U1A         N00399 N00302 VDD 0 N00261 LM358
V_V1         VDD 0 5.4Vdc
V_V2         N00399 0  
+SIN 0 30m 12k 0 0 0
R_R1         N00302 N00261  100k TC=0,0 
R_R2         0 N00302  1k TC=0,0 
X_U1B         N00261 N00805 VDD 0 N00920 LM358
R_R3         0 N00805  22k TC=0,0 
R_R4         N00805 VDD  100k TC=0,0 
C_C1         0 N01140  1u  TC=0,0 
R_R5         0 N01140  10k TC=0,0 
D_D2         N00920 N01140 D1N4007 

**** RESUMING test1.cir ****
.END

**** 07/01/15 14:25:04 ****** PSpice 16.5.0 (April 2011) ****** ID# 0 ********

 ** Profile: "SCHEMATIC1-test1"  [ C:\USERS\ZIM\DESKTOP\SMART CHARGER\Simulation\lm358 test-PSpiceFiles\SCHEMATIC1\test1.sim ] 


 ****     Diode MODEL PARAMETERS


******************************************************************************




               D1N4007         D1N4001         
          IS   14.110000E-09   14.110000E-09 
           N    1.984           1.984        
         IKF   94.81           94.81         
          BV    1.500000E+03   75            
         IBV   10.000000E-06   10.000000E-06 
          RS     .03389          .03389      
          TT    5.700000E-06    5.700000E-06 
         CJO   25.890000E-12   25.890000E-12 
          VJ     .3245           .3245       
           M     .44             .44         


               X_U1A.x_lm358.dx 
          IS  800.000000E-18 
          RS    1            


               X_U1A.x_lm358.dy 
          IS  800.000000E-18 
          RS    1.000000E-03 
         CJO   10.000000E-12 


               X_U1B.x_lm358.dx 
          IS  800.000000E-18 
          RS    1            


               X_U1B.x_lm358.dy 
          IS  800.000000E-18 
          RS    1.000000E-03 
         CJO   10.000000E-12 


**** 07/01/15 14:25:04 ****** PSpice 16.5.0 (April 2011) ****** ID# 0 ********

 ** Profile: "SCHEMATIC1-test1"  [ C:\USERS\ZIM\DESKTOP\SMART CHARGER\Simulation\lm358 test-PSpiceFiles\SCHEMATIC1\test1.sim ] 


 ****     BJT MODEL PARAMETERS


******************************************************************************




               X_U1A.x_lm358.qx 
               PNP             
       LEVEL    1            
          IS  800.000000E-18 
          BF  166.7          
          NF    1            
          BR    1            
          NR    1            
         ISS    0            
          RE    0            
          RC    0            
         CJE    0            
         VJE     .75         
         CJC    0            
         VJC     .75         
         MJC     .33         
        XCJC    1            
         CJS    0            
         VJS     .75         
          KF    0            
          AF    1            
          CN    2.2          
           D     .52         


               X_U1B.x_lm358.qx 
               PNP             
       LEVEL    1            
          IS  800.000000E-18 
          BF  166.7          
          NF    1            
          BR    1            
          NR    1            
         ISS    0            
          RE    0            
          RC    0            
         CJE    0            
         VJE     .75         
         CJC    0            
         VJC     .75         
         MJC     .33         
        XCJC    1            
         CJS    0            
         VJS     .75         
          KF    0            
          AF    1            
          CN    2.2          
           D     .52         


**** 07/01/15 14:25:04 ****** PSpice 16.5.0 (April 2011) ****** ID# 0 ********

 ** Profile: "SCHEMATIC1-test1"  [ C:\USERS\ZIM\DESKTOP\SMART CHARGER\Simulation\lm358 test-PSpiceFiles\SCHEMATIC1\test1.sim ] 


 ****     Current Controlled Switch MODEL PARAMETERS


******************************************************************************




               X_U1A.x_lm358.sw2 
         RON    1            
        ROFF   10.000000E+06 
         ION    0            
        IOFF   -1.000000E-06 


               X_U1A.x_lm358.sw1 
         RON    1            
        ROFF   10.000000E+06 
         ION   -1.000000E-06 
        IOFF    0            


               X_U1A.x_lm358.sw3 
         RON    1            
        ROFF   10.000000E+06 
         ION   -1.000000E-06 
        IOFF    0            


               X_U1A.x_lm358.sw4 
         RON    1            
        ROFF   10.000000E+06 
         ION    0            
        IOFF   -1.000000E-06 


               X_U1B.x_lm358.sw2 
         RON    1            
        ROFF   10.000000E+06 
         ION    0            
        IOFF   -1.000000E-06 


               X_U1B.x_lm358.sw1 
         RON    1            
        ROFF   10.000000E+06 
         ION   -1.000000E-06 
        IOFF    0            


               X_U1B.x_lm358.sw3 
         RON    1            
        ROFF   10.000000E+06 
         ION   -1.000000E-06 
        IOFF    0            


               X_U1B.x_lm358.sw4 
         RON    1            
        ROFF   10.000000E+06 
         ION    0            
        IOFF   -1.000000E-06 


**** 07/01/15 14:25:04 ****** PSpice 16.5.0 (April 2011) ****** ID# 0 ********

 ** Profile: "SCHEMATIC1-test1"  [ C:\USERS\ZIM\DESKTOP\SMART CHARGER\Simulation\lm358 test-PSpiceFiles\SCHEMATIC1\test1.sim ] 


 ****     INITIAL TRANSIENT SOLUTION       TEMPERATURE =   27.000 DEG C


******************************************************************************



 NODE   VOLTAGE     NODE   VOLTAGE     NODE   VOLTAGE     NODE   VOLTAGE


(  VDD)    5.4000  (N00261)     .0959 (N00302) 993.5E-06 (N00399)    0.0000     

(N00805)     .9738 (N00920)     .0057 (N01140) 16.63E-06                        

(X_U1A.x_lm358.6)     .0064           (X_U1A.x_lm358.7)     .0335               

(X_U1A.x_lm358.8)     .0335           (X_U1A.x_lm358.9)    0.0000               

(X_U1A.x_lm358.a)     .0012           (X_U1A.x_lm358.b)     .0012               

(X_U1B.x_lm358.6)    1.5030           (X_U1B.x_lm358.7)   -2.0248               

(X_U1B.x_lm358.8)   -2.0248           (X_U1B.x_lm358.9)    0.0000               

(X_U1B.x_lm358.a)     .0406           (X_U1B.x_lm358.b)     .0406               

(X_U1A.x_lm358.10)     .6087          (X_U1A.x_lm358.11)     .0397              

(X_U1A.x_lm358.12)     .0407          (X_U1A.x_lm358.13)     .5948              

(X_U1A.x_lm358.14)     .5945          (X_U1A.x_lm358.53)    3.9000              

(X_U1A.x_lm358.54)     .8220          (X_U1A.x_lm358.90)   -1.2468              

(X_U1A.x_lm358.91)   40.0000          (X_U1A.x_lm358.92)  -40.0000              

(X_U1A.x_lm358.99)    2.7000          (X_U1B.x_lm358.10)     .7360              

(X_U1B.x_lm358.11) 9.075E-09          (X_U1B.x_lm358.12)     .0804              

(X_U1B.x_lm358.13)     .7360          (X_U1B.x_lm358.14)     .7079              

(X_U1B.x_lm358.53)    3.9000          (X_U1B.x_lm358.54)     .8220              

(X_U1B.x_lm358.90)  -40.6100          (X_U1B.x_lm358.91)   40.0000              

(X_U1B.x_lm358.92)  -40.0000          (X_U1B.x_lm358.99)    2.7000          




    VOLTAGE SOURCE CURRENTS
    NAME         CURRENT

    V_V1        -1.265E-03
    V_V2         4.603E-08
    X_U1A.x_lm358.vb   6.388E-08
    X_U1A.x_lm358.vc   3.805E-12
    X_U1A.x_lm358.ve  -1.248E-03
    X_U1A.x_lm358.vlim  -1.247E-03
    X_U1A.x_lm358.vlp  -4.125E-11
    X_U1A.x_lm358.vln  -3.876E-11
    X_U1B.x_lm358.vb   1.503E-05
    X_U1B.x_lm358.vc   3.895E-12
    X_U1B.x_lm358.ve  -4.061E-02
    X_U1B.x_lm358.vlim  -4.061E-02
    X_U1B.x_lm358.vlp  -8.061E-11
    X_U1B.x_lm358.vln   1.391E-05

    TOTAL POWER DISSIPATION   4.07E-02  WATTS

Reducing minimum delta to make the circuit converge.
Reducing minimum delta to make the circuit converge.
Reducing minimum delta to make the circuit converge.
Reducing minimum delta to make the circuit converge.

ERROR(ORPSIM-15138): Convergence problem in transient analysis at Time =  718.6E-06.
         Time step =  113.7E-21, minimum allowable step size =  1.000E-18

  These voltages failed to converge:

    V(X_U1B.x_lm358.6)        =   -22.88mV  \   -22.13mV
    V(X_U1B.x_lm358.90)       =   -15.07mV  \  -262.24uV
    V(X_U1B.x_lm358.a)        =   -1.369KV  \     5.400V
    V(X_U1B.x_lm358.b)        =  -872.88uV  \    4.077uV

  These supply currents failed to converge:

    I(X_U1B.x_lm358.egnd)     =    30.20uA  \    15.37uA
    I(V_V1)                   =    8.434mA  \    3.345mA
    I(X_U1A.x_lm358.vc)       =  -515.48uA  \   629.76nA
    I(X_U1A.x_lm358.ve)       =  -528.02uA  \   -11.91uA
    I(X_U1B.x_lm358.vb)       =  -228.76nA  \  -221.29nA
    I(X_U1B.x_lm358.vc)       =   -10.64mA  \   -4.618mA
    I(X_U1B.x_lm358.ve)       =   -5.868mA  \  -143.95nA
    I(X_U1B.x_lm358.vlim)     =   -15.07uA  \  -262.24nA

  These devices failed to converge:
    X_U1A.x_lm358.de X_U1B.x_lm358.dc 

ERROR(ORPSIM-15659): Discontinuing simulation due to convergence problem



  Last node voltages tried were:

 NODE   VOLTAGE     NODE   VOLTAGE     NODE   VOLTAGE     NODE   VOLTAGE


(  VDD)    5.4000  (N00261)     .2212 (N00302)     .0022 (N00399)    -.0209     

(N00805)     .9738 (N00920)    4.6600 (N01140)    4.0427                        

(X_U1A.x_lm358.6) 526.6E-06           (X_U1A.x_lm358.7)     .2207               

(X_U1A.x_lm358.8)     .2207           (X_U1A.x_lm358.9)    0.0000               

(X_U1A.x_lm358.a) 10.99E-06           (X_U1A.x_lm358.b) 10.45E-06               

(X_U1B.x_lm358.6)    -.0229           (X_U1B.x_lm358.7)    4.6592               

(X_U1B.x_lm358.8)    4.6592           (X_U1B.x_lm358.9)    0.0000               

(X_U1B.x_lm358.a)-1368.5000           (X_U1B.x_lm358.b)-872.9E-06               

(X_U1A.x_lm358.10)     .5978          (X_U1A.x_lm358.11)     .0288              

(X_U1A.x_lm358.12)     .0516          (X_U1A.x_lm358.13)     .5877              

(X_U1A.x_lm358.14)     .5797          (X_U1A.x_lm358.53)    3.9000              

(X_U1A.x_lm358.54)     .8220          (X_U1A.x_lm358.90)    -.0105              

(X_U1A.x_lm358.91)   40.0000          (X_U1A.x_lm358.92)  -40.0000              

(X_U1A.x_lm358.99)    2.7000          (X_U1B.x_lm358.10)     .8614              

(X_U1B.x_lm358.11) 793.1E-09          (X_U1B.x_lm358.12)     .0803              

(X_U1B.x_lm358.13)     .8614          (X_U1B.x_lm358.14)     .8333              

(X_U1B.x_lm358.53)    3.9000          (X_U1B.x_lm358.54)     .8220              

(X_U1B.x_lm358.90)    -.0151          (X_U1B.x_lm358.91)   40.0000              

(X_U1B.x_lm358.92)  -40.0000          (X_U1B.x_lm358.99)    2.7000          


**** Interrupt ****
